12

O         -0.00000        0.00000        0.00000
N         -3.85030       -0.47770       -0.37880
C         -0.72160        1.13460       -0.10660
C         -2.02410        1.05570        0.71800
C         -2.99930        0.24970        0.00990
C         -0.04700        2.39360       -0.19960
C          0.59780        3.30810       -0.10360
H          0.80973        0.08100       -0.52791
H         -1.02553        1.15836       -1.13225
H         -1.81728        0.61081        1.66889
H         -2.41442        2.04159        0.86141
H          1.16849        4.11750       -0.01863
