12
Properties=species:S:1:pos:R:3 pbc="F F F"
O       -1.42350000      -1.19250000      -0.05420000
N        2.32600000      -0.90810000      -0.97810000
C       -0.73510000      -0.16080000       0.40820000
C        1.60630000      -0.76650000      -0.09950000
C        0.63040000      -0.38270000       0.91390000
C       -1.03870000       1.18090000      -0.09970000
C       -1.36550000       2.22970000      -0.09060000
H       -2.29739000      -0.89206000      -0.34909000
H       -1.26281000      -0.12094000       1.33817000
H        0.96639000       0.52391000       1.37223000
H        0.56758000      -1.20461000       1.59612000
H       -1.66119000       3.17866000      -0.08237000
