12

O         -1.32680       -1.12280       -0.00440
N          2.51990       -1.40510       -0.51080
C         -0.61740       -0.00820        0.08150
C          0.68220       -0.10760        0.83040
C          1.68230       -0.83790        0.04930
C         -1.17960        1.26610       -0.23560
C         -1.76050        2.21540       -0.21040
H         -2.29642       -0.80278        0.25541
H         -0.83469        0.57672        1.13962
H          1.04660        0.87812        1.03156
H          0.50987       -0.63680        1.74427
H         -2.27919        3.06304       -0.18790
