12

O         -0.00000        0.00000        0.00000
O         -3.65280        1.40670       -0.69060
N         -0.64360        0.64940        0.99640
C         -3.29100       -0.79730        0.13100
C         -3.27240       -1.97490        0.15000
C         -1.74660        1.08330        0.73050
C         -2.79580        0.58580       -0.11310
H          0.86512       -0.30288        0.31738
H         -4.28538        0.89476       -1.21849
H         -3.25670       -2.96865        0.16603
H         -2.13133        0.48017       -0.94510
H         -1.97098        1.97550        1.19810
