12

O          1.33420        0.56720        1.31440
O         -1.14250        1.30180        0.25880
N          1.84490        0.48490        0.03520
C         -1.08250       -1.03190       -0.27460
C         -1.32820       -2.10880        0.02190
C          0.91300        0.43120       -0.82700
C         -0.53890        0.35560       -0.52860
H          2.06411        0.60686        1.95202
H         -0.76481        2.17366        0.06360
H         -1.54174       -3.04476        0.27960
H         -0.85878        0.67256       -1.49923
H          1.18978        0.44101       -1.82114
