16
Properties=species:S:1:pos:R:3 pbc="F F F"
O       -2.32570000      -0.05880000      -0.15860000
O        2.16280000      -0.28390000      -0.97870000
N       -0.11780000       0.73030000       1.16950000
C       -1.12660000      -0.53080000      -0.73840000
C        0.11500000      -0.48160000       1.41690000
C        0.09440000       0.06690000       0.06150000
C        1.19780000       0.55790000      -0.77220000
H       -3.08374000      -0.42085000      -0.64357000
H        2.83952000       0.13050000      -1.53658000
H       -1.05601000       1.08907000       1.34685000
H       -1.07425000      -0.21883000      -1.76057000
H       -1.09942000      -1.59970000      -0.69811000
H        1.03871000      -0.77577000       1.86980000
H       -0.38000000      -1.27381000       1.93869000
H        0.79350000       0.83475000      -1.72341000
H        1.63178000       1.37330000      -0.23213000
